AMOSTRA/CAP/Capacitores.dss
! CAPACITORES — gerados de UNCRMT
! Emitidos como banco FIXO. A BDGD nao traz o ajuste do CapControl;
! se houver controle em campo, incluir CapControl aqui.
! 0 bancos descartados por PAC ausente da rede.
New Capacitor.2080676 Bus1=26842-6485347.1.2.3 Phases=3 Conn=wye kV=13.8 kvar=6.0
New Capacitor.2080677 Bus1=11920-6491095.1.2.3 Phases=3 Conn=wye kV=13.8 kvar=6.0
New Capacitor.3134052 Bus1=11920-6486782.1.2.3 Phases=3 Conn=wye kV=13.8 kvar=10.0
New Capacitor.2080519 Bus1=11919-6477569.1.2.3 Phases=3 Conn=wye kV=13.8 kvar=6.0
New Capacitor.2080966 Bus1=26842-6491326.1.2.3 Phases=3 Conn=wye kV=13.8 kvar=6.0
New Capacitor.2083327 Bus1=11942-6500750.1.2.3 Phases=3 Conn=wye kV=13.8 kvar=10.0
New Capacitor.3177285 Bus1=11924-6498011.1.2.3 Phases=3 Conn=wye kV=13.8 kvar=6.0
New Capacitor.2083088 Bus1=11924-6497719.1.2.3 Phases=3 Conn=wye kV=13.8 kvar=6.0
New Capacitor.2716006 Bus1=15682-10561637.1.2.3 Phases=3 Conn=wye kV=13.8 kvar=10.0
New Capacitor.2095782 Bus1=11958-6604616.1.2.3 Phases=3 Conn=wye kV=13.8 kvar=10.0
New Capacitor.2095769 Bus1=11958-6601497.1.2.3 Phases=3 Conn=wye kV=13.8 kvar=6.0
New Capacitor.2103833 Bus1=11972-6662082.1.2.3 Phases=3 Conn=wye kV=13.8 kvar=10.0
New Capacitor.2789800 Bus1=16114-10911547.1.2.3 Phases=3 Conn=wye kV=13.8 kvar=10.0
New Capacitor.2715945 Bus1=15682-10562382.1.2.3 Phases=3 Conn=wye kV=13.8 kvar=6.0
New Capacitor.3098099 Bus1=26842-12337767.1.2.3 Phases=3 Conn=wye kV=13.8 kvar=10.0
New Capacitor.PA-ND-SE-CAP-TRM-BCSE-01H1 Bus1=11919-6478241.1.2.3 Phases=3 Conn=wye kV=13.8 kvar=17.0
New Capacitor.PA-ND-SE-CAP-TRM-BCSE-01H2 Bus1=11919-6478241.1.2.3 Phases=3 Conn=wye kV=13.8 kvar=17.0
